<?xml version="1.0" encoding="UTF-8"?>
<!-- generated on 2018-04-28 15:43:04.083000 by $Id$
  options: -n cross_1.net.xml -o cross_1.rou.xml -e 10 -p 2.0 <doubleminus>speed-exponent 0
-->
<routes xmlns:xsi="http://www.w3.org/2001/XMLSchema-instance" xsi:noNamespaceSchemaLocation="http://sumo.dlr.de/xsd/routes_file.xsd">
    <trip id="0" depart="0.00" from="2i" to="54i"/>
    <trip id="1" depart="2.00" from="52o" to="2o"/>
    <trip id="2" depart="4.00" from="4i" to="1i"/>
    <trip id="3" depart="6.00" from="1i" to="4i"/>
    <trip id="4" depart="8.00" from="51o" to="4o"/>
</routes>
