<?xml version="1.0" encoding="UTF-8"?>
<!-- generated on 2018-05-01 18:48:56.257500 by $Id$
  options: -n cross_1.net.xml -o cross_1.rou.xml -e 1000 -p 10.0 <doubleminus>trip-attributes=type="myType"
-->
<routes xmlns:xsi="http://www.w3.org/2001/XMLSchema-instance" xsi:noNamespaceSchemaLocation="http://sumo.dlr.de/xsd/routes_file.xsd">
    <trip id="0" depart="0.00" from="4i" to="51i" type="myType"/>
    <trip id="1" depart="10.00" from="4i" to="1i" type="myType"/>
    <trip id="2" depart="20.00" from="3i" to="1o" type="myType"/>
    <trip id="3" depart="30.00" from="4i" to="2o" type="myType"/>
    <trip id="4" depart="40.00" from="3i" to="53i" type="myType"/>
    <trip id="5" depart="50.00" from="2o" to="52i" type="myType"/>
    <trip id="6" depart="60.00" from="53o" to="51i" type="myType"/>
    <trip id="7" depart="70.00" from="52o" to="3o" type="myType"/>
    <trip id="8" depart="80.00" from="3i" to="3o" type="myType"/>
    <trip id="9" depart="90.00" from="51o" to="2o" type="myType"/>
    <trip id="10" depart="100.00" from="4i" to="4o" type="myType"/>
    <trip id="11" depart="110.00" from="3i" to="51i" type="myType"/>
    <trip id="12" depart="120.00" from="2o" to="3i" type="myType"/>
    <trip id="13" depart="130.00" from="3i" to="1o" type="myType"/>
    <trip id="14" depart="140.00" from="4i" to="2o" type="myType"/>
    <trip id="15" depart="150.00" from="2o" to="54i" type="myType"/>
    <trip id="16" depart="160.00" from="3i" to="52i" type="myType"/>
    <trip id="17" depart="170.00" from="1i" to="4o" type="myType"/>
    <trip id="18" depart="180.00" from="4o" to="1i" type="myType"/>
    <trip id="19" depart="190.00" from="4o" to="4i" type="myType"/>
    <trip id="20" depart="200.00" from="2i" to="2o" type="myType"/>
    <trip id="21" depart="210.00" from="1i" to="51i" type="myType"/>
    <trip id="22" depart="220.00" from="3o" to="53i" type="myType"/>
    <trip id="23" depart="230.00" from="4o" to="4o" type="myType"/>
    <trip id="24" depart="240.00" from="2i" to="2o" type="myType"/>
    <trip id="25" depart="250.00" from="1i" to="1o" type="myType"/>
    <trip id="26" depart="260.00" from="3i" to="2i" type="myType"/>
    <trip id="27" depart="270.00" from="2i" to="51i" type="myType"/>
    <trip id="28" depart="280.00" from="54o" to="4o" type="myType"/>
    <trip id="29" depart="290.00" from="4i" to="3i" type="myType"/>
    <trip id="30" depart="300.00" from="4i" to="1i" type="myType"/>
    <trip id="31" depart="310.00" from="54o" to="53i" type="myType"/>
    <trip id="32" depart="320.00" from="54o" to="54i" type="myType"/>
    <trip id="33" depart="330.00" from="51o" to="2o" type="myType"/>
    <trip id="34" depart="340.00" from="3i" to="1i" type="myType"/>
    <trip id="35" depart="350.00" from="53o" to="3i" type="myType"/>
    <trip id="36" depart="360.00" from="2o" to="52i" type="myType"/>
    <trip id="37" depart="370.00" from="54o" to="3i" type="myType"/>
    <trip id="38" depart="380.00" from="2i" to="2o" type="myType"/>
    <trip id="39" depart="390.00" from="54o" to="2o" type="myType"/>
    <trip id="40" depart="400.00" from="3i" to="3o" type="myType"/>
    <trip id="41" depart="410.00" from="1i" to="2i" type="myType"/>
    <trip id="42" depart="420.00" from="4i" to="1i" type="myType"/>
    <trip id="43" depart="430.00" from="4o" to="2o" type="myType"/>
    <trip id="44" depart="440.00" from="54o" to="54i" type="myType"/>
    <trip id="45" depart="450.00" from="3i" to="3o" type="myType"/>
    <trip id="46" depart="460.00" from="2i" to="54i" type="myType"/>
    <trip id="47" depart="470.00" from="4o" to="51i" type="myType"/>
    <trip id="48" depart="480.00" from="53o" to="3i" type="myType"/>
    <trip id="49" depart="490.00" from="2i" to="1i" type="myType"/>
    <trip id="50" depart="500.00" from="4o" to="3o" type="myType"/>
    <trip id="51" depart="510.00" from="51o" to="52i" type="myType"/>
    <trip id="52" depart="520.00" from="51o" to="2i" type="myType"/>
    <trip id="53" depart="530.00" from="2i" to="2i" type="myType"/>
    <trip id="54" depart="540.00" from="51o" to="4o" type="myType"/>
    <trip id="55" depart="550.00" from="52o" to="2o" type="myType"/>
    <trip id="56" depart="560.00" from="51o" to="4o" type="myType"/>
    <trip id="57" depart="570.00" from="2i" to="53i" type="myType"/>
    <trip id="58" depart="580.00" from="2o" to="4o" type="myType"/>
    <trip id="59" depart="590.00" from="2o" to="3i" type="myType"/>
    <trip id="60" depart="600.00" from="3i" to="1o" type="myType"/>
    <trip id="61" depart="610.00" from="52o" to="52i" type="myType"/>
    <trip id="62" depart="620.00" from="2o" to="1i" type="myType"/>
    <trip id="63" depart="630.00" from="1o" to="2i" type="myType"/>
    <trip id="64" depart="640.00" from="3i" to="52i" type="myType"/>
    <trip id="65" depart="650.00" from="53o" to="3o" type="myType"/>
    <trip id="66" depart="660.00" from="53o" to="51i" type="myType"/>
    <trip id="67" depart="670.00" from="1o" to="1i" type="myType"/>
    <trip id="68" depart="680.00" from="52o" to="51i" type="myType"/>
    <trip id="69" depart="690.00" from="4o" to="2i" type="myType"/>
    <trip id="70" depart="700.00" from="1i" to="51i" type="myType"/>
    <trip id="71" depart="710.00" from="3o" to="4i" type="myType"/>
    <trip id="72" depart="720.00" from="53o" to="54i" type="myType"/>
    <trip id="73" depart="730.00" from="1i" to="51i" type="myType"/>
    <trip id="74" depart="740.00" from="1i" to="2o" type="myType"/>
    <trip id="75" depart="750.00" from="52o" to="4i" type="myType"/>
    <trip id="76" depart="760.00" from="1o" to="2i" type="myType"/>
    <trip id="77" depart="770.00" from="2i" to="53i" type="myType"/>
    <trip id="78" depart="780.00" from="3o" to="54i" type="myType"/>
    <trip id="79" depart="790.00" from="2i" to="3i" type="myType"/>
    <trip id="80" depart="800.00" from="2o" to="3i" type="myType"/>
    <trip id="81" depart="810.00" from="51o" to="52i" type="myType"/>
    <trip id="82" depart="820.00" from="1i" to="2o" type="myType"/>
    <trip id="83" depart="830.00" from="1o" to="1o" type="myType"/>
    <trip id="84" depart="840.00" from="1i" to="53i" type="myType"/>
    <trip id="85" depart="850.00" from="52o" to="54i" type="myType"/>
    <trip id="86" depart="860.00" from="1o" to="54i" type="myType"/>
    <trip id="87" depart="870.00" from="4i" to="2o" type="myType"/>
    <trip id="88" depart="880.00" from="53o" to="2i" type="myType"/>
    <trip id="89" depart="890.00" from="2o" to="53i" type="myType"/>
    <trip id="90" depart="900.00" from="2o" to="1o" type="myType"/>
    <trip id="91" depart="910.00" from="4o" to="51i" type="myType"/>
    <trip id="92" depart="920.00" from="2i" to="3i" type="myType"/>
    <trip id="93" depart="930.00" from="4i" to="3o" type="myType"/>
    <trip id="94" depart="940.00" from="53o" to="4i" type="myType"/>
    <trip id="95" depart="950.00" from="4i" to="1o" type="myType"/>
    <trip id="96" depart="960.00" from="1o" to="51i" type="myType"/>
    <trip id="97" depart="970.00" from="54o" to="4i" type="myType"/>
    <trip id="98" depart="980.00" from="2o" to="4i" type="myType"/>
    <trip id="99" depart="990.00" from="3i" to="51i" type="myType"/>
</routes>
