<?xml version="1.0" encoding="UTF-8"?>

<!-- generated on 24/04/2018 18:31:14 by Netedit Version 0.32.0
<?xml version="1.0" encoding="UTF-8"?>

<configuration xmlns:xsi="http://www.w3.org/2001/XMLSchema-instance" xsi:noNamespaceSchemaLocation="http://sumo.dlr.de/xsd/netconvertConfiguration.xsd">

    <input>
        <sumo-net-file value="C:\Users\Avner\PycharmProjects\sumo-0.32.0\data\my\cross_1.net.xml"/>
    </input>

    <output>
        <output-file value="C:\Users\Avner\PycharmProjects\sumo-0.32.0\data\my\cross_1.net.xml"/>
    </output>

    <processing>
        <no-turnarounds value="true"/>
        <offset.disable-normalization value="true"/>
        <lefthand value="false"/>
        <junctions.corner-detail value="0"/>
        <rectangular-lane-cut value="false"/>
        <walkingareas value="false"/>
    </processing>

</configuration>
-->

<net version="0.27" xmlns:xsi="http://www.w3.org/2001/XMLSchema-instance" xsi:noNamespaceSchemaLocation="http://sumo.dlr.de/xsd/net_file.xsd">

    <location netOffset="510.00,510.00" convBoundary="370.00,370.00,650.00,650.00" origBoundary="-510.00,-510.00,510.00,510.00" projParameter="!"/>

    <edge id=":0_0" function="internal">
        <lane id=":0_0_0" index="0" speed="15.28" length="5.00" shape="501.75,521.35 501.56,519.99 500.98,519.02 500.01,518.44 498.65,518.25"/>
    </edge>
    <edge id=":0_1" function="internal">
        <lane id=":0_1_0" index="0" speed="15.28" length="22.70" shape="501.75,521.35 501.75,498.65"/>
        <lane id=":0_1_1" index="1" speed="15.28" length="22.70" shape="505.05,521.35 505.05,498.65"/>
        <lane id=":0_1_2" index="2" speed="15.28" length="22.70" shape="508.35,521.35 508.35,498.65"/>
    </edge>
    <edge id=":0_4" function="internal">
        <lane id=":0_4_0" index="0" speed="15.28" length="7.47" shape="508.35,521.35 509.16,515.66 510.05,514.18"/>
    </edge>
    <edge id=":0_20" function="internal">
        <lane id=":0_20_0" index="0" speed="15.28" length="13.50" shape="510.05,514.18 511.60,511.60 515.66,509.16 521.35,508.35"/>
    </edge>
    <edge id=":0_5" function="internal">
        <lane id=":0_5_0" index="0" speed="15.28" length="5.00" shape="521.35,518.25 519.99,518.44 519.02,519.02 518.44,519.99 518.25,521.35"/>
    </edge>
    <edge id=":0_6" function="internal">
        <lane id=":0_6_0" index="0" speed="15.28" length="22.70" shape="521.35,518.25 498.65,518.25"/>
        <lane id=":0_6_1" index="1" speed="15.28" length="22.70" shape="521.35,514.95 498.65,514.95"/>
        <lane id=":0_6_2" index="2" speed="15.28" length="22.70" shape="521.35,511.65 498.65,511.65"/>
    </edge>
    <edge id=":0_9" function="internal">
        <lane id=":0_9_0" index="0" speed="15.28" length="7.47" shape="521.35,511.65 515.66,510.84 514.18,509.95"/>
    </edge>
    <edge id=":0_21" function="internal">
        <lane id=":0_21_0" index="0" speed="15.28" length="13.50" shape="514.18,509.95 511.60,508.40 509.16,504.34 508.35,498.65"/>
    </edge>
    <edge id=":0_10" function="internal">
        <lane id=":0_10_0" index="0" speed="15.28" length="5.00" shape="518.25,498.65 518.44,500.01 519.02,500.98 519.99,501.56 521.35,501.75"/>
    </edge>
    <edge id=":0_11" function="internal">
        <lane id=":0_11_0" index="0" speed="15.28" length="22.70" shape="518.25,498.65 518.25,521.35"/>
        <lane id=":0_11_1" index="1" speed="15.28" length="22.70" shape="514.95,498.65 514.95,521.35"/>
        <lane id=":0_11_2" index="2" speed="15.28" length="22.70" shape="511.65,498.65 511.65,521.35"/>
    </edge>
    <edge id=":0_14" function="internal">
        <lane id=":0_14_0" index="0" speed="15.28" length="7.47" shape="511.65,498.65 510.84,504.34 509.95,505.82"/>
    </edge>
    <edge id=":0_22" function="internal">
        <lane id=":0_22_0" index="0" speed="15.28" length="13.50" shape="509.95,505.82 508.40,508.40 504.34,510.84 498.65,511.65"/>
    </edge>
    <edge id=":0_15" function="internal">
        <lane id=":0_15_0" index="0" speed="15.28" length="5.00" shape="498.65,501.75 500.01,501.56 500.98,500.98 501.56,500.01 501.75,498.65"/>
    </edge>
    <edge id=":0_16" function="internal">
        <lane id=":0_16_0" index="0" speed="15.28" length="22.70" shape="498.65,501.75 521.35,501.75"/>
        <lane id=":0_16_1" index="1" speed="15.28" length="22.70" shape="498.65,505.05 521.35,505.05"/>
        <lane id=":0_16_2" index="2" speed="15.28" length="22.70" shape="498.65,508.35 521.35,508.35"/>
    </edge>
    <edge id=":0_19" function="internal">
        <lane id=":0_19_0" index="0" speed="15.28" length="7.47" shape="498.65,508.35 504.34,509.16 505.82,510.05"/>
    </edge>
    <edge id=":0_23" function="internal">
        <lane id=":0_23_0" index="0" speed="15.28" length="13.50" shape="505.82,510.05 508.40,511.60 510.84,515.66 511.65,521.35"/>
    </edge>
    <edge id=":1_0" function="internal">
        <lane id=":1_0_0" index="0" speed="15.28" length="16.50" shape="370.00,518.25 370.00,501.75"/>
    </edge>
    <edge id=":1_1" function="internal">
        <lane id=":1_1_0" index="0" speed="15.28" length="9.90" shape="370.00,514.95 370.00,505.05"/>
    </edge>
    <edge id=":1_2" function="internal">
        <lane id=":1_2_0" index="0" speed="15.28" length="3.30" shape="370.00,511.65 370.00,508.35"/>
    </edge>
    <edge id=":1_3" function="internal">
        <lane id=":1_3_0" index="0" speed="15.28" length="2.30" shape="370.00,511.65 368.76,510.82 368.40,510.10"/>
    </edge>
    <edge id=":1_8" function="internal">
        <lane id=":1_8_0" index="0" speed="15.28" length="2.52" shape="368.40,510.10 368.35,510.00 368.76,509.18 370.00,508.35"/>
    </edge>
    <edge id=":1_4" function="internal">
        <lane id=":1_4_0" index="0" speed="15.28" length="16.50" shape="370.00,518.25 370.00,501.75"/>
    </edge>
    <edge id=":1_5" function="internal">
        <lane id=":1_5_0" index="0" speed="15.28" length="9.90" shape="370.00,514.95 370.00,505.05"/>
    </edge>
    <edge id=":1_6" function="internal">
        <lane id=":1_6_0" index="0" speed="15.28" length="3.30" shape="370.00,511.65 370.00,508.35"/>
    </edge>
    <edge id=":1_7" function="internal">
        <lane id=":1_7_0" index="0" speed="15.28" length="2.30" shape="370.00,511.65 368.76,510.82 368.40,510.10"/>
    </edge>
    <edge id=":1_9" function="internal">
        <lane id=":1_9_0" index="0" speed="15.28" length="2.52" shape="368.40,510.10 368.35,510.00 368.76,509.18 370.00,508.35"/>
    </edge>
    <edge id=":2_0" function="internal">
        <lane id=":2_0_0" index="0" speed="15.28" length="16.50" shape="650.00,501.75 650.00,518.25"/>
    </edge>
    <edge id=":2_1" function="internal">
        <lane id=":2_1_0" index="0" speed="15.28" length="9.90" shape="650.00,505.05 650.00,514.95"/>
    </edge>
    <edge id=":2_2" function="internal">
        <lane id=":2_2_0" index="0" speed="15.28" length="3.30" shape="650.00,508.35 650.00,511.65"/>
    </edge>
    <edge id=":2_3" function="internal">
        <lane id=":2_3_0" index="0" speed="15.28" length="2.30" shape="650.00,508.35 651.24,509.18 651.60,509.90"/>
    </edge>
    <edge id=":2_8" function="internal">
        <lane id=":2_8_0" index="0" speed="15.28" length="2.52" shape="651.60,509.90 651.65,510.00 651.24,510.82 650.00,511.65"/>
    </edge>
    <edge id=":2_4" function="internal">
        <lane id=":2_4_0" index="0" speed="15.28" length="16.50" shape="650.00,501.75 650.00,518.25"/>
    </edge>
    <edge id=":2_5" function="internal">
        <lane id=":2_5_0" index="0" speed="15.28" length="9.90" shape="650.00,505.05 650.00,514.95"/>
    </edge>
    <edge id=":2_6" function="internal">
        <lane id=":2_6_0" index="0" speed="15.28" length="3.30" shape="650.00,508.35 650.00,511.65"/>
    </edge>
    <edge id=":2_7" function="internal">
        <lane id=":2_7_0" index="0" speed="15.28" length="2.30" shape="650.00,508.35 651.24,509.18 651.60,509.90"/>
    </edge>
    <edge id=":2_9" function="internal">
        <lane id=":2_9_0" index="0" speed="15.28" length="2.52" shape="651.60,509.90 651.65,510.00 651.24,510.82 650.00,511.65"/>
    </edge>
    <edge id=":3_0" function="internal">
        <lane id=":3_0_0" index="0" speed="15.28" length="16.50" shape="501.75,370.00 518.25,370.00"/>
    </edge>
    <edge id=":3_1" function="internal">
        <lane id=":3_1_0" index="0" speed="15.28" length="9.90" shape="505.05,370.00 514.95,370.00"/>
    </edge>
    <edge id=":3_2" function="internal">
        <lane id=":3_2_0" index="0" speed="15.28" length="3.30" shape="508.35,370.00 511.65,370.00"/>
    </edge>
    <edge id=":3_3" function="internal">
        <lane id=":3_3_0" index="0" speed="15.28" length="2.30" shape="508.35,370.00 509.18,368.76 509.90,368.40"/>
    </edge>
    <edge id=":3_8" function="internal">
        <lane id=":3_8_0" index="0" speed="15.28" length="2.52" shape="509.90,368.40 510.00,368.35 510.82,368.76 511.65,370.00"/>
    </edge>
    <edge id=":3_4" function="internal">
        <lane id=":3_4_0" index="0" speed="15.28" length="16.50" shape="501.75,370.00 518.25,370.00"/>
    </edge>
    <edge id=":3_5" function="internal">
        <lane id=":3_5_0" index="0" speed="15.28" length="9.90" shape="505.05,370.00 514.95,370.00"/>
    </edge>
    <edge id=":3_6" function="internal">
        <lane id=":3_6_0" index="0" speed="15.28" length="3.30" shape="508.35,370.00 511.65,370.00"/>
    </edge>
    <edge id=":3_7" function="internal">
        <lane id=":3_7_0" index="0" speed="15.28" length="2.30" shape="508.35,370.00 509.18,368.76 509.90,368.40"/>
    </edge>
    <edge id=":3_9" function="internal">
        <lane id=":3_9_0" index="0" speed="15.28" length="2.52" shape="509.90,368.40 510.00,368.35 510.82,368.76 511.65,370.00"/>
    </edge>
    <edge id=":4_0" function="internal">
        <lane id=":4_0_0" index="0" speed="15.28" length="0.10" shape="501.75,640.00 501.75,640.00"/>
        <lane id=":4_0_1" index="1" speed="15.28" length="0.10" shape="505.05,640.00 505.05,640.00"/>
        <lane id=":4_0_2" index="2" speed="15.28" length="0.10" shape="508.35,640.00 508.35,640.00"/>
    </edge>
    <edge id=":4_3" function="internal">
        <lane id=":4_3_0" index="0" speed="15.28" length="2.41" shape="508.35,640.00 509.18,638.76 510.00,638.35"/>
    </edge>
    <edge id=":4_8" function="internal">
        <lane id=":4_8_0" index="0" speed="15.28" length="2.41" shape="510.00,638.35 510.82,638.76 511.65,640.00"/>
    </edge>
    <edge id=":4_4" function="internal">
        <lane id=":4_4_0" index="0" speed="15.28" length="0.10" shape="518.25,640.00 518.25,640.00"/>
        <lane id=":4_4_1" index="1" speed="15.28" length="0.10" shape="514.95,640.00 514.95,640.00"/>
        <lane id=":4_4_2" index="2" speed="15.28" length="0.10" shape="511.65,640.00 511.65,640.00"/>
    </edge>
    <edge id=":4_7" function="internal">
        <lane id=":4_7_0" index="0" speed="15.28" length="2.41" shape="511.65,640.00 510.82,641.24 510.00,641.65"/>
    </edge>
    <edge id=":4_9" function="internal">
        <lane id=":4_9_0" index="0" speed="15.28" length="2.41" shape="510.00,641.65 509.18,641.24 508.35,640.00"/>
    </edge>
    <edge id=":51_0" function="internal">
        <lane id=":51_0_0" index="0" speed="15.28" length="4.82" shape="380.00,508.35 381.24,509.18 381.65,510.00 381.24,510.82 380.00,511.65"/>
    </edge>
    <edge id=":52_0" function="internal">
        <lane id=":52_0_0" index="0" speed="15.28" length="4.82" shape="640.00,511.65 638.76,510.82 638.35,510.00 638.76,509.18 640.00,508.35"/>
    </edge>
    <edge id=":53_0" function="internal">
        <lane id=":53_0_0" index="0" speed="15.28" length="4.82" shape="511.65,380.00 510.82,381.24 510.00,381.65 509.18,381.24 508.35,380.00"/>
    </edge>
    <edge id=":54_0" function="internal">
        <lane id=":54_0_0" index="0" speed="15.28" length="4.82" shape="511.65,650.00 510.82,651.24 510.00,651.65 509.18,651.24 508.35,650.00"/>
    </edge>

    <edge id="1i" from="1" to="0" priority="78">
        <lane id="1i_0" index="0" speed="19.44" length="128.65" shape="370.00,501.75 498.65,501.75"/>
        <lane id="1i_1" index="1" speed="19.44" length="128.65" shape="370.00,505.05 498.65,505.05"/>
        <lane id="1i_2" index="2" speed="19.44" length="128.65" shape="370.00,508.35 498.65,508.35"/>
    </edge>
    <edge id="1o" from="0" to="1" priority="46">
        <lane id="1o_0" index="0" speed="11.11" length="128.65" shape="498.65,518.25 370.00,518.25"/>
        <lane id="1o_1" index="1" speed="11.11" length="128.65" shape="498.65,514.95 370.00,514.95"/>
        <lane id="1o_2" index="2" speed="11.11" length="128.65" shape="498.65,511.65 370.00,511.65"/>
    </edge>
    <edge id="2i" from="2" to="0" priority="78">
        <lane id="2i_0" index="0" speed="19.44" length="128.65" shape="650.00,518.25 521.35,518.25"/>
        <lane id="2i_1" index="1" speed="19.44" length="128.65" shape="650.00,514.95 521.35,514.95"/>
        <lane id="2i_2" index="2" speed="19.44" length="128.65" shape="650.00,511.65 521.35,511.65"/>
    </edge>
    <edge id="2o" from="0" to="2" priority="46">
        <lane id="2o_0" index="0" speed="11.11" length="128.65" shape="521.35,501.75 650.00,501.75"/>
        <lane id="2o_1" index="1" speed="11.11" length="128.65" shape="521.35,505.05 650.00,505.05"/>
        <lane id="2o_2" index="2" speed="11.11" length="128.65" shape="521.35,508.35 650.00,508.35"/>
    </edge>
    <edge id="3i" from="3" to="0" priority="78">
        <lane id="3i_0" index="0" speed="19.44" length="128.65" shape="518.25,370.00 518.25,498.65"/>
        <lane id="3i_1" index="1" speed="19.44" length="128.65" shape="514.95,370.00 514.95,498.65"/>
        <lane id="3i_2" index="2" speed="19.44" length="128.65" shape="511.65,370.00 511.65,498.65"/>
    </edge>
    <edge id="3o" from="0" to="3" priority="46">
        <lane id="3o_0" index="0" speed="11.11" length="128.65" shape="501.75,498.65 501.75,370.00"/>
        <lane id="3o_1" index="1" speed="11.11" length="128.65" shape="505.05,498.65 505.05,370.00"/>
        <lane id="3o_2" index="2" speed="11.11" length="128.65" shape="508.35,498.65 508.35,370.00"/>
    </edge>
    <edge id="4i" from="4" to="0" priority="78">
        <lane id="4i_0" index="0" speed="19.44" length="118.65" shape="501.75,640.00 501.75,521.35"/>
        <lane id="4i_1" index="1" speed="19.44" length="118.65" shape="505.05,640.00 505.05,521.35"/>
        <lane id="4i_2" index="2" speed="19.44" length="118.65" shape="508.35,640.00 508.35,521.35"/>
    </edge>
    <edge id="4o" from="0" to="4" priority="46">
        <lane id="4o_0" index="0" speed="11.11" length="118.65" shape="518.25,521.35 518.25,640.00"/>
        <lane id="4o_1" index="1" speed="11.11" length="118.65" shape="514.95,521.35 514.95,640.00"/>
        <lane id="4o_2" index="2" speed="11.11" length="118.65" shape="511.65,521.35 511.65,640.00"/>
    </edge>
    <edge id="51i" from="1" to="51" priority="78">
        <lane id="51i_0" index="0" speed="19.44" length="10.00" shape="370.00,501.75 380.00,501.75"/>
        <lane id="51i_1" index="1" speed="19.44" length="10.00" shape="370.00,505.05 380.00,505.05"/>
        <lane id="51i_2" index="2" speed="19.44" length="10.00" shape="370.00,508.35 380.00,508.35"/>
    </edge>
    <edge id="51o" from="51" to="1" priority="46">
        <lane id="51o_0" index="0" speed="11.11" length="10.00" shape="380.00,518.25 370.00,518.25"/>
        <lane id="51o_1" index="1" speed="11.11" length="10.00" shape="380.00,514.95 370.00,514.95"/>
        <lane id="51o_2" index="2" speed="11.11" length="10.00" shape="380.00,511.65 370.00,511.65"/>
    </edge>
    <edge id="52i" from="2" to="52" priority="78">
        <lane id="52i_0" index="0" speed="19.44" length="10.00" shape="650.00,518.25 640.00,518.25"/>
        <lane id="52i_1" index="1" speed="19.44" length="10.00" shape="650.00,514.95 640.00,514.95"/>
        <lane id="52i_2" index="2" speed="19.44" length="10.00" shape="650.00,511.65 640.00,511.65"/>
    </edge>
    <edge id="52o" from="52" to="2" priority="46">
        <lane id="52o_0" index="0" speed="11.11" length="10.00" shape="640.00,501.75 650.00,501.75"/>
        <lane id="52o_1" index="1" speed="11.11" length="10.00" shape="640.00,505.05 650.00,505.05"/>
        <lane id="52o_2" index="2" speed="11.11" length="10.00" shape="640.00,508.35 650.00,508.35"/>
    </edge>
    <edge id="53i" from="3" to="53" priority="78">
        <lane id="53i_0" index="0" speed="19.44" length="10.00" shape="518.25,370.00 518.25,380.00"/>
        <lane id="53i_1" index="1" speed="19.44" length="10.00" shape="514.95,370.00 514.95,380.00"/>
        <lane id="53i_2" index="2" speed="19.44" length="10.00" shape="511.65,370.00 511.65,380.00"/>
    </edge>
    <edge id="53o" from="53" to="3" priority="46">
        <lane id="53o_0" index="0" speed="11.11" length="10.00" shape="501.75,380.00 501.75,370.00"/>
        <lane id="53o_1" index="1" speed="11.11" length="10.00" shape="505.05,380.00 505.05,370.00"/>
        <lane id="53o_2" index="2" speed="11.11" length="10.00" shape="508.35,380.00 508.35,370.00"/>
    </edge>
    <edge id="54i" from="4" to="54" priority="78">
        <lane id="54i_0" index="0" speed="19.44" length="10.00" shape="518.25,640.00 518.25,650.00"/>
        <lane id="54i_1" index="1" speed="19.44" length="10.00" shape="514.95,640.00 514.95,650.00"/>
        <lane id="54i_2" index="2" speed="19.44" length="10.00" shape="511.65,640.00 511.65,650.00"/>
    </edge>
    <edge id="54o" from="54" to="4" priority="46">
        <lane id="54o_0" index="0" speed="11.11" length="10.00" shape="501.75,650.00 501.75,640.00"/>
        <lane id="54o_1" index="1" speed="11.11" length="10.00" shape="505.05,650.00 505.05,640.00"/>
        <lane id="54o_2" index="2" speed="11.11" length="10.00" shape="508.35,650.00 508.35,640.00"/>
    </edge>

    <tlLogic id="0" type="static" programID="0" offset="0">
        <phase duration="29" state="GGGGgrrrrrGGGGgrrrrr"/>
        <phase duration="5" state="yyyygrrrrryyyygrrrrr"/>
        <phase duration="6" state="rrrrGrrrrrrrrrGrrrrr"/>
        <phase duration="5" state="rrrryrrrrrrrrryrrrrr"/>
        <phase duration="29" state="rrrrrGGGGgrrrrrGGGGg"/>
        <phase duration="5" state="rrrrryyyygrrrrryyyyg"/>
        <phase duration="6" state="rrrrrrrrrGrrrrrrrrrG"/>
        <phase duration="5" state="rrrrrrrrryrrrrrrrrry"/>
    </tlLogic>

    <junction id="0" type="traffic_light" x="510.00" y="510.00" incLanes="4i_0 4i_1 4i_2 2i_0 2i_1 2i_2 3i_0 3i_1 3i_2 1i_0 1i_1 1i_2" intLanes=":0_0_0 :0_1_0 :0_1_1 :0_1_2 :0_20_0 :0_5_0 :0_6_0 :0_6_1 :0_6_2 :0_21_0 :0_10_0 :0_11_0 :0_11_1 :0_11_2 :0_22_0 :0_15_0 :0_16_0 :0_16_1 :0_16_2 :0_23_0" shape="500.15,521.35 519.85,521.35 521.35,519.85 521.35,500.15 519.85,498.65 500.15,498.65 498.65,500.15 498.65,519.85">
        <request index="0" response="00000000000000000000" foes="00000100000111000000" cont="0"/>
        <request index="1" response="00000000000000000000" foes="11111100001111000000" cont="0"/>
        <request index="2" response="00000000000000000000" foes="11111100001111000000" cont="0"/>
        <request index="3" response="00000000000000000000" foes="11111100001111000000" cont="0"/>
        <request index="4" response="00000011110000000000" foes="11110011111111000000" cont="1"/>
        <request index="5" response="00000011100000000000" foes="10000011100000000000" cont="0"/>
        <request index="6" response="00000111100000011111" foes="10000111100000011111" cont="0"/>
        <request index="7" response="00000111100000011111" foes="10000111100000011111" cont="0"/>
        <request index="8" response="00000111100000011111" foes="10000111100000011111" cont="0"/>
        <request index="9" response="01111111100000011110" foes="01111111100000011110" cont="1"/>
        <request index="10" response="00000000000000000000" foes="01110000000000010000" cont="0"/>
        <request index="11" response="00000000000000000000" foes="11110000001111110000" cont="0"/>
        <request index="12" response="00000000000000000000" foes="11110000001111110000" cont="0"/>
        <request index="13" response="00000000000000000000" foes="11110000001111110000" cont="0"/>
        <request index="14" response="00000000000000001111" foes="11110000001111001111" cont="1"/>
        <request index="15" response="00000000000000001110" foes="00000000001000001110" cont="0"/>
        <request index="16" response="00000111110000011110" foes="00000111111000011110" cont="0"/>
        <request index="17" response="00000111110000011110" foes="00000111111000011110" cont="0"/>
        <request index="18" response="00000111110000011110" foes="00000111111000011110" cont="0"/>
        <request index="19" response="00000111100111111110" foes="00000111100111111110" cont="1"/>
    </junction>
    <junction id="1" type="priority" x="370.00" y="510.00" incLanes="1o_0 1o_1 1o_2 51o_0 51o_1 51o_2" intLanes=":1_0_0 :1_1_0 :1_2_0 :1_8_0 :1_4_0 :1_5_0 :1_6_0 :1_9_0" shape="370.00,519.85 370.00,510.05 370.00,500.15">
        <request index="0" response="00000000" foes="10000000" cont="0"/>
        <request index="1" response="00000000" foes="10000000" cont="0"/>
        <request index="2" response="00000000" foes="10000000" cont="0"/>
        <request index="3" response="01110000" foes="01110000" cont="1"/>
        <request index="4" response="00000000" foes="00001000" cont="0"/>
        <request index="5" response="00000000" foes="00001000" cont="0"/>
        <request index="6" response="00000000" foes="00001000" cont="0"/>
        <request index="7" response="00000111" foes="00000111" cont="1"/>
    </junction>
    <junction id="2" type="priority" x="650.00" y="510.00" incLanes="2o_0 2o_1 2o_2 52o_0 52o_1 52o_2" intLanes=":2_0_0 :2_1_0 :2_2_0 :2_8_0 :2_4_0 :2_5_0 :2_6_0 :2_9_0" shape="650.00,500.15 650.00,509.95 650.00,519.85">
        <request index="0" response="00000000" foes="10000000" cont="0"/>
        <request index="1" response="00000000" foes="10000000" cont="0"/>
        <request index="2" response="00000000" foes="10000000" cont="0"/>
        <request index="3" response="01110000" foes="01110000" cont="1"/>
        <request index="4" response="00000000" foes="00001000" cont="0"/>
        <request index="5" response="00000000" foes="00001000" cont="0"/>
        <request index="6" response="00000000" foes="00001000" cont="0"/>
        <request index="7" response="00000111" foes="00000111" cont="1"/>
    </junction>
    <junction id="3" type="priority" x="510.00" y="370.00" incLanes="3o_0 3o_1 3o_2 53o_0 53o_1 53o_2" intLanes=":3_0_0 :3_1_0 :3_2_0 :3_8_0 :3_4_0 :3_5_0 :3_6_0 :3_9_0" shape="500.15,370.00 509.95,370.00 519.85,370.00">
        <request index="0" response="00000000" foes="10000000" cont="0"/>
        <request index="1" response="00000000" foes="10000000" cont="0"/>
        <request index="2" response="00000000" foes="10000000" cont="0"/>
        <request index="3" response="01110000" foes="01110000" cont="1"/>
        <request index="4" response="00000000" foes="00001000" cont="0"/>
        <request index="5" response="00000000" foes="00001000" cont="0"/>
        <request index="6" response="00000000" foes="00001000" cont="0"/>
        <request index="7" response="00000111" foes="00000111" cont="1"/>
    </junction>
    <junction id="4" type="priority" x="510.00" y="640.00" incLanes="54o_0 54o_1 54o_2 4o_0 4o_1 4o_2" intLanes=":4_0_0 :4_0_1 :4_0_2 :4_8_0 :4_4_0 :4_4_1 :4_4_2 :4_9_0" shape="500.15,640.00 519.85,640.00 500.15,640.00">
        <request index="0" response="00000000" foes="10000000" cont="0"/>
        <request index="1" response="00000000" foes="10000000" cont="0"/>
        <request index="2" response="00000000" foes="10000000" cont="0"/>
        <request index="3" response="01110000" foes="01110000" cont="1"/>
        <request index="4" response="00000000" foes="00001000" cont="0"/>
        <request index="5" response="00000000" foes="00001000" cont="0"/>
        <request index="6" response="00000000" foes="00001000" cont="0"/>
        <request index="7" response="00000111" foes="00000111" cont="1"/>
    </junction>
    <junction id="51" type="priority" x="380.00" y="510.00" incLanes="51i_0 51i_1 51i_2" intLanes=":51_0_0" shape="380.00,510.05 380.00,500.15 380.00,509.95">
        <request index="0" response="0" foes="0" cont="0"/>
    </junction>
    <junction id="52" type="priority" x="640.00" y="510.00" incLanes="52i_0 52i_1 52i_2" intLanes=":52_0_0" shape="640.00,509.95 640.00,519.85 640.00,510.05">
        <request index="0" response="0" foes="0" cont="0"/>
    </junction>
    <junction id="53" type="priority" x="510.00" y="380.00" incLanes="53i_0 53i_1 53i_2" intLanes=":53_0_0" shape="509.95,380.00 519.85,380.00 510.05,380.00">
        <request index="0" response="0" foes="0" cont="0"/>
    </junction>
    <junction id="54" type="priority" x="510.00" y="650.00" incLanes="54i_0 54i_1 54i_2" intLanes=":54_0_0" shape="509.95,650.00 519.85,650.00 510.05,650.00">
        <request index="0" response="0" foes="0" cont="0"/>
    </junction>

    <junction id=":0_20_0" type="internal" x="510.05" y="514.18" incLanes=":0_4_0 3i_0 3i_1 3i_2" intLanes=":0_6_0 :0_6_1 :0_6_2 :0_9_0 :0_10_0 :0_11_0 :0_11_1 :0_11_2 :0_16_0 :0_16_1 :0_16_2 :0_19_0"/>
    <junction id=":0_21_0" type="internal" x="514.18" y="509.95" incLanes=":0_9_0 1i_0 1i_1 1i_2" intLanes=":0_1_0 :0_1_1 :0_1_2 :0_4_0 :0_11_0 :0_11_1 :0_11_2 :0_14_0 :0_15_0 :0_16_0 :0_16_1 :0_16_2"/>
    <junction id=":0_22_0" type="internal" x="509.95" y="505.82" incLanes=":0_14_0 4i_0 4i_1 4i_2" intLanes=":0_0_0 :0_1_0 :0_1_1 :0_1_2 :0_6_0 :0_6_1 :0_6_2 :0_9_0 :0_16_0 :0_16_1 :0_16_2 :0_19_0"/>
    <junction id=":0_23_0" type="internal" x="505.82" y="510.05" incLanes=":0_19_0 2i_0 2i_1 2i_2" intLanes=":0_1_0 :0_1_1 :0_1_2 :0_4_0 :0_5_0 :0_6_0 :0_6_1 :0_6_2 :0_11_0 :0_11_1 :0_11_2 :0_14_0"/>
    <junction id=":1_8_0" type="internal" x="368.40" y="510.10" incLanes=":1_3_0 51o_0 51o_1 51o_2" intLanes=":1_4_0 :1_5_0 :1_6_0"/>
    <junction id=":1_9_0" type="internal" x="368.40" y="510.10" incLanes=":1_7_0 1o_0 1o_1 1o_2" intLanes=":1_0_0 :1_1_0 :1_2_0"/>
    <junction id=":2_8_0" type="internal" x="651.60" y="509.90" incLanes=":2_3_0 52o_0 52o_1 52o_2" intLanes=":2_4_0 :2_5_0 :2_6_0"/>
    <junction id=":2_9_0" type="internal" x="651.60" y="509.90" incLanes=":2_7_0 2o_0 2o_1 2o_2" intLanes=":2_0_0 :2_1_0 :2_2_0"/>
    <junction id=":3_8_0" type="internal" x="509.90" y="368.40" incLanes=":3_3_0 53o_0 53o_1 53o_2" intLanes=":3_4_0 :3_5_0 :3_6_0"/>
    <junction id=":3_9_0" type="internal" x="509.90" y="368.40" incLanes=":3_7_0 3o_0 3o_1 3o_2" intLanes=":3_0_0 :3_1_0 :3_2_0"/>
    <junction id=":4_8_0" type="internal" x="510.00" y="638.35" incLanes=":4_3_0 4o_0 4o_1 4o_2" intLanes=":4_4_0 :4_4_1 :4_4_2"/>
    <junction id=":4_9_0" type="internal" x="510.00" y="641.65" incLanes=":4_7_0 54o_0 54o_1 54o_2" intLanes=":4_0_0 :4_0_1 :4_0_2"/>

    <connection from="1i" to="3o" fromLane="0" toLane="0" via=":0_15_0" tl="0" linkIndex="15" dir="r" state="o"/>
    <connection from="1i" to="2o" fromLane="0" toLane="0" via=":0_16_0" tl="0" linkIndex="16" dir="s" state="o"/>
    <connection from="1i" to="2o" fromLane="1" toLane="1" via=":0_16_1" tl="0" linkIndex="17" dir="s" state="o"/>
    <connection from="1i" to="2o" fromLane="2" toLane="2" via=":0_16_2" tl="0" linkIndex="18" dir="s" state="o"/>
    <connection from="1i" to="4o" fromLane="2" toLane="2" via=":0_19_0" tl="0" linkIndex="19" dir="l" state="o"/>
    <connection from="1o" to="51i" fromLane="0" toLane="0" via=":1_0_0" dir="l" state="M"/>
    <connection from="1o" to="51i" fromLane="1" toLane="1" via=":1_1_0" dir="l" state="M"/>
    <connection from="1o" to="51i" fromLane="2" toLane="2" via=":1_2_0" dir="l" state="M"/>
    <connection from="1o" to="1i" fromLane="2" toLane="2" via=":1_3_0" dir="t" state="m"/>
    <connection from="2i" to="4o" fromLane="0" toLane="0" via=":0_5_0" tl="0" linkIndex="5" dir="r" state="o"/>
    <connection from="2i" to="1o" fromLane="0" toLane="0" via=":0_6_0" tl="0" linkIndex="6" dir="s" state="o"/>
    <connection from="2i" to="1o" fromLane="1" toLane="1" via=":0_6_1" tl="0" linkIndex="7" dir="s" state="o"/>
    <connection from="2i" to="1o" fromLane="2" toLane="2" via=":0_6_2" tl="0" linkIndex="8" dir="s" state="o"/>
    <connection from="2i" to="3o" fromLane="2" toLane="2" via=":0_9_0" tl="0" linkIndex="9" dir="l" state="o"/>
    <connection from="2o" to="52i" fromLane="0" toLane="0" via=":2_0_0" dir="l" state="M"/>
    <connection from="2o" to="52i" fromLane="1" toLane="1" via=":2_1_0" dir="l" state="M"/>
    <connection from="2o" to="52i" fromLane="2" toLane="2" via=":2_2_0" dir="l" state="M"/>
    <connection from="2o" to="2i" fromLane="2" toLane="2" via=":2_3_0" dir="t" state="m"/>
    <connection from="3i" to="2o" fromLane="0" toLane="0" via=":0_10_0" tl="0" linkIndex="10" dir="r" state="o"/>
    <connection from="3i" to="4o" fromLane="0" toLane="0" via=":0_11_0" tl="0" linkIndex="11" dir="s" state="o"/>
    <connection from="3i" to="4o" fromLane="1" toLane="1" via=":0_11_1" tl="0" linkIndex="12" dir="s" state="o"/>
    <connection from="3i" to="4o" fromLane="2" toLane="2" via=":0_11_2" tl="0" linkIndex="13" dir="s" state="o"/>
    <connection from="3i" to="1o" fromLane="2" toLane="2" via=":0_14_0" tl="0" linkIndex="14" dir="l" state="o"/>
    <connection from="3o" to="53i" fromLane="0" toLane="0" via=":3_0_0" dir="l" state="M"/>
    <connection from="3o" to="53i" fromLane="1" toLane="1" via=":3_1_0" dir="l" state="M"/>
    <connection from="3o" to="53i" fromLane="2" toLane="2" via=":3_2_0" dir="l" state="M"/>
    <connection from="3o" to="3i" fromLane="2" toLane="2" via=":3_3_0" dir="t" state="m"/>
    <connection from="4i" to="1o" fromLane="0" toLane="0" via=":0_0_0" tl="0" linkIndex="0" dir="r" state="o"/>
    <connection from="4i" to="3o" fromLane="0" toLane="0" via=":0_1_0" tl="0" linkIndex="1" dir="s" state="o"/>