<?xml version="1.0" encoding="UTF-8"?>
<!-- generated on 2018-04-30 16:44:17.435000 by $Id$
  options: -n cross_1.net.xml -o cross_1.rou.xml -e 100 -p 2.0 <doubleminus>trip-attributes=type="myType"
-->
<routes xmlns:xsi="http://www.w3.org/2001/XMLSchema-instance" xsi:noNamespaceSchemaLocation="http://sumo.dlr.de/xsd/routes_file.xsd">
    <trip id="0" depart="0.00" from="2o" to="2i" type="myType"/>
    <trip id="1" depart="2.00" from="2o" to="2o" type="myType"/>
    <trip id="2" depart="4.00" from="51o" to="2i" type="myType"/>
    <trip id="3" depart="6.00" from="54o" to="1i" type="myType"/>
    <trip id="4" depart="8.00" from="2o" to="54i" type="myType"/>
    <trip id="5" depart="10.00" from="4o" to="4o" type="myType"/>
    <trip id="6" depart="12.00" from="1o" to="4i" type="myType"/>
    <trip id="7" depart="14.00" from="54o" to="4o" type="myType"/>
    <trip id="8" depart="16.00" from="52o" to="2i" type="myType"/>
    <trip id="9" depart="18.00" from="4i" to="4i" type="myType"/>
    <trip id="10" depart="20.00" from="1i" to="54i" type="myType"/>
    <trip id="11" depart="22.00" from="3i" to="54i" type="myType"/>
    <trip id="12" depart="24.00" from="53o" to="51i" type="myType"/>
    <trip id="13" depart="26.00" from="3i" to="1i" type="myType"/>
    <trip id="14" depart="28.00" from="52o" to="3i" type="myType"/>
    <trip id="15" depart="30.00" from="1i" to="4i" type="myType"/>
    <trip id="16" depart="32.00" from="2i" to="1i" type="myType"/>
    <trip id="17" depart="34.00" from="2o" to="51i" type="myType"/>
    <trip id="18" depart="36.00" from="1i" to="3o" type="myType"/>
    <trip id="19" depart="38.00" from="3o" to="52i" type="myType"/>
    <trip id="20" depart="40.00" from="54o" to="3o" type="myType"/>
    <trip id="21" depart="42.00" from="1o" to="3i" type="myType"/>
    <trip id="22" depart="44.00" from="52o" to="3o" type="myType"/>
    <trip id="23" depart="46.00" from="1i" to="2o" type="myType"/>
    <trip id="24" depart="48.00" from="52o" to="1o" type="myType"/>
    <trip id="25" depart="50.00" from="52o" to="51i" type="myType"/>
    <trip id="26" depart="52.00" from="3o" to="52i" type="myType"/>
    <trip id="27" depart="54.00" from="4i" to="52i" type="myType"/>
    <trip id="28" depart="56.00" from="54o" to="54i" type="myType"/>
    <trip id="29" depart="58.00" from="2i" to="54i" type="myType"/>
    <trip id="30" depart="60.00" from="4o" to="51i" type="myType"/>
    <trip id="31" depart="62.00" from="3i" to="2i" type="myType"/>
    <trip id="32" depart="64.00" from="2o" to="54i" type="myType"/>
    <trip id="33" depart="66.00" from="52o" to="53i" type="myType"/>
    <trip id="34" depart="68.00" from="4i" to="51i" type="myType"/>
    <trip id="35" depart="70.00" from="3o" to="3i" type="myType"/>
    <trip id="36" depart="72.00" from="2o" to="2i" type="myType"/>
    <trip id="37" depart="74.00" from="1o" to="1i" type="myType"/>
    <trip id="38" depart="76.00" from="51o" to="51i" type="myType"/>
    <trip id="39" depart="78.00" from="53o" to="1o" type="myType"/>
    <trip id="40" depart="80.00" from="51o" to="54i" type="myType"/>
    <trip id="41" depart="82.00" from="3i" to="4i" type="myType"/>
    <trip id="42" depart="84.00" from="52o" to="3o" type="myType"/>
    <trip id="43" depart="86.00" from="4o" to="3i" type="myType"/>
    <trip id="44" depart="88.00" from="4o" to="1o" type="myType"/>
    <trip id="45" depart="90.00" from="1o" to="52i" type="myType"/>
    <trip id="46" depart="92.00" from="53o" to="1i" type="myType"/>
    <trip id="47" depart="94.00" from="52o" to="4o" type="myType"/>
    <trip id="48" depart="96.00" from="53o" to="4i" type="myType"/>
    <trip id="49" depart="98.00" from="2o" to="1o" type="myType"/>
</routes>
