<?xml version="1.0" encoding="UTF-8"?>
<!-- generated on 2018-04-30 19:35:02.679921 by $Id$
  options: -n cross_1.net.xml -o cross_1.rou.xml -e 60 -p 3.3333333333333335 <doubleminus>trip-attributes=type="myType"
-->
<routes xmlns:xsi="http://www.w3.org/2001/XMLSchema-instance" xsi:noNamespaceSchemaLocation="http://sumo.dlr.de/xsd/routes_file.xsd">
    <trip id="0" depart="0.00" from="3i" to="1o" type="myType"/>
    <trip id="1" depart="3.33" from="53o" to="1o" type="myType"/>
    <trip id="2" depart="6.67" from="4i" to="54i" type="myType"/>
    <trip id="3" depart="10.00" from="1i" to="3o" type="myType"/>
    <trip id="4" depart="13.33" from="51o" to="52i" type="myType"/>
    <trip id="5" depart="16.67" from="4o" to="3o" type="myType"/>
    <trip id="6" depart="20.00" from="4i" to="51i" type="myType"/>
    <trip id="7" depart="23.33" from="52o" to="2o" type="myType"/>
    <trip id="8" depart="26.67" from="3o" to="53i" type="myType"/>
    <trip id="9" depart="30.00" from="3o" to="2i" type="myType"/>
    <trip id="10" depart="33.33" from="4i" to="51i" type="myType"/>
    <trip id="11" depart="36.67" from="4o" to="1i" type="myType"/>
    <trip id="12" depart="40.00" from="4o" to="2o" type="myType"/>
    <trip id="13" depart="43.33" from="2o" to="52i" type="myType"/>
    <trip id="14" depart="46.67" from="51o" to="51i" type="myType"/>
    <trip id="15" depart="50.00" from="3i" to="1i" type="myType"/>
    <trip id="16" depart="53.33" from="51o" to="3i" type="myType"/>
    <trip id="17" depart="56.67" from="51o" to="54i" type="myType"/>
</routes>
