<configuration>
    <input>
        <net-file value="cross_1.net.xml"/>
        <route-files value="cross_1.rou.xml"/>
		<additional-files value="cross_1.add.xml"/>
    </input>
</configuration>