<additional><vTypeDistribution id="myType"><vType accel="2.6" decel="4.5" id="car" jmDriveAfterRedTime="0" lcStrategic="1" maxSpeed="70" minGap="2.5" sigma="0.8" /><vType accel="2.1" decel="4.3" id="bus" jmDriveAfterRedTime="-1" lcStrategic="1" maxSpeed="55" minGap="2.5" sigma="0.2" /></vTypeDistribution></additional>