<configuration>
    <input>
        <net-file value="cross_1.net.xml"/>
        <route-files value="cross_1.rou.xml"/>
    </input>
    <time>
        <begin value="0"/>
        <end value="500"/>
    </time>
</configuration>